# generated using pymatgen
data_Nd2Zr2O7
_symmetry_space_group_name_H-M   'P 1'
_cell_length_a   10.67048
_cell_length_b   10.67048
_cell_length_c   10.67048
_cell_angle_alpha   90.00000000
_cell_angle_beta   90.00000000
_cell_angle_gamma   90.00000000
_symmetry_Int_Tables_number   1
_chemical_formula_structural   La0.8Gd1.2Zr2O7
_chemical_formula_sum   'La6.4 Gd9.6 Zr16 O56'
_cell_volume   1214.9306
_cell_formula_units_Z   8
loop_
 _symmetry_equiv_pos_site_id
 _symmetry_equiv_pos_as_xyz
  1  'x, y, z'
loop_
 _atom_type_symbol
 _atom_type_oxidation_number
  Nd3+  3.0
  Zr4+  4.0
  O2-  -2.0
loop_
 _atom_site_type_symbol
 _atom_site_label
 _atom_site_symmetry_multiplicity
 _atom_site_fract_x
 _atom_site_fract_y
 _atom_site_fract_z
 _atom_site_occupancy
  La3+  La0  1  0.12500000  0.62500000  0.12500000  1
  Gd3+  Gd1  1  0.37500000  0.62500000  0.37500000  1
  La3+  La2  1  0.12500000  0.87500000  0.37500000  1
  Gd3+  Gd3  1  0.37500000  0.87500000  0.12500000  1
  Gd3+  Gd4  1  0.12500000  0.12500000  0.62500000  1
  Gd3+  Gd5  1  0.37500000  0.12500000  0.87500000  1
  La3+  La6  1  0.12500000  0.37500000  0.87500000  1
  Gd3+  Gd7  1  0.37500000  0.37500000  0.62500000  1
  La3+  La8  1  0.62500000  0.62500000  0.62500000  1
  Gd3+  Gd9  1  0.87500000  0.62500000  0.87500000  1
  La3+  La10  1  0.62500000  0.87500000  0.87500000  1
  Gd3+  Gd11  1  0.87500000  0.87500000  0.62500000  1
  Gd3+  Gd12  1  0.62500000  0.12500000  0.12500000  1
  Gd3+  Gd13  1  0.87500000  0.12500000  0.37500000  1
  La3+  La14  1  0.62500000  0.37500000  0.37500000  1
  Gd3+  Gd15  1  0.87500000  0.37500000  0.12500000  1
  Zr4+  Zr16  1  0.62500000  0.87500000  0.37500000  1
  Zr4+  Zr17  1  0.12500000  0.12500000  0.12500000  1
  Zr4+  Zr18  1  0.87500000  0.87500000  0.12500000  1
  Zr4+  Zr19  1  0.37500000  0.12500000  0.37500000  1
  Zr4+  Zr20  1  0.62500000  0.37500000  0.87500000  1
  Zr4+  Zr21  1  0.12500000  0.62500000  0.62500000  1
  Zr4+  Zr22  1  0.87500000  0.37500000  0.62500000  1
  Zr4+  Zr23  1  0.37500000  0.62500000  0.87500000  1
  Zr4+  Zr24  1  0.12500000  0.87500000  0.87500000  1
  Zr4+  Zr25  1  0.62500000  0.12500000  0.62500000  1
  Zr4+  Zr26  1  0.37500000  0.87500000  0.62500000  1
  Zr4+  Zr27  1  0.87500000  0.12500000  0.87500000  1
  Zr4+  Zr28  1  0.12500000  0.37500000  0.37500000  1
  Zr4+  Zr29  1  0.62500000  0.62500000  0.12500000  1
  Zr4+  Zr30  1  0.37500000  0.37500000  0.12500000  1
  Zr4+  Zr31  1  0.87500000  0.62500000  0.37500000  1
  O2-  O32  1  0.50000000  0.75636200  0.50000000  1
  O2-  O33  1  0.25000000  0.25000000  0.49363800  1
  O2-  O34  1  0.25000000  0.00636200  0.25000000  1
  O2-  O35  1  0.00000000  0.00000000  0.24363800  1
  O2-  O36  1  0.00636200  0.25000000  0.25000000  1
  O2-  O37  1  0.50000000  0.24363800  0.50000000  1
  O2-  O38  1  0.50000000  0.00000000  0.25636200  1
  O2-  O39  1  0.25636200  0.00000000  0.50000000  1
  O2-  O40  1  0.25000000  0.25000000  0.25000000  1
  O2-  O41  1  0.74363800  0.00000000  0.50000000  1
  O2-  O42  1  0.50000000  0.00000000  0.50000000  1
  O2-  O43  1  0.25000000  0.49363800  0.25000000  1
  O2-  O44  1  0.25000000  0.25000000  0.00636200  1
  O2-  O45  1  0.49363800  0.25000000  0.25000000  1
  O2-  O46  1  0.50000000  0.25636200  0.00000000  1
  O2-  O47  1  0.25000000  0.75000000  0.99363800  1
  O2-  O48  1  0.25000000  0.50636200  0.75000000  1
  O2-  O49  1  0.00000000  0.50000000  0.74363800  1
  O2-  O50  1  0.00636200  0.75000000  0.75000000  1
  O2-  O51  1  0.50000000  0.74363800  0.00000000  1
  O2-  O52  1  0.50000000  0.50000000  0.75636200  1
  O2-  O53  1  0.25636200  0.50000000  0.00000000  1
  O2-  O54  1  0.25000000  0.75000000  0.75000000  1
  O2-  O55  1  0.74363800  0.50000000  0.00000000  1
  O2-  O56  1  0.50000000  0.50000000  0.00000000  1
  O2-  O57  1  0.25000000  0.99363800  0.75000000  1
  O2-  O58  1  0.25000000  0.75000000  0.50636200  1
  O2-  O59  1  0.49363800  0.75000000  0.75000000  1
  O2-  O60  1  0.00000000  0.75636200  0.00000000  1
  O2-  O61  1  0.75000000  0.25000000  0.99363800  1
  O2-  O62  1  0.75000000  0.00636200  0.75000000  1
  O2-  O63  1  0.50000000  0.00000000  0.74363800  1
  O2-  O64  1  0.50636200  0.25000000  0.75000000  1
  O2-  O65  1  0.00000000  0.24363800  0.00000000  1
  O2-  O66  1  0.00000000  0.00000000  0.75636200  1
  O2-  O67  1  0.75636200  0.00000000  0.00000000  1
  O2-  O68  1  0.75000000  0.25000000  0.75000000  1
  O2-  O69  1  0.24363800  0.00000000  0.00000000  1
  O2-  O70  1  0.00000000  0.00000000  0.00000000  1
  O2-  O71  1  0.75000000  0.49363800  0.75000000  1
  O2-  O72  1  0.75000000  0.25000000  0.50636200  1
  O2-  O73  1  0.99363800  0.25000000  0.75000000  1
  O2-  O74  1  0.00000000  0.25636200  0.50000000  1
  O2-  O75  1  0.75000000  0.75000000  0.49363800  1
  O2-  O76  1  0.75000000  0.50636200  0.25000000  1
  O2-  O77  1  0.50000000  0.50000000  0.24363800  1
  O2-  O78  1  0.50636200  0.75000000  0.25000000  1
  O2-  O79  1  0.00000000  0.74363800  0.50000000  1
  O2-  O80  1  0.00000000  0.50000000  0.25636200  1
  O2-  O81  1  0.75636200  0.50000000  0.50000000  1
  O2-  O82  1  0.75000000  0.75000000  0.25000000  1
  O2-  O83  1  0.24363800  0.50000000  0.50000000  1
  O2-  O84  1  0.00000000  0.50000000  0.50000000  1
  O2-  O85  1  0.75000000  0.99363800  0.25000000  1
  O2-  O86  1  0.75000000  0.75000000  0.00636200  1
  O2-  O87  1  0.99363800  0.75000000  0.25000000  1
